 60
The creator of xyz minimum from Gaussian SIG779_close.out	-3169.40054415
C	0.216523	-0.472841	-0.294483
S	1.393892	-1.867319	0.122479
C	2.789818	-0.764448	0.083981
C	2.434921	0.557019	0.012451
C	1.033905	0.800337	-0.017086
C	0.342882	1.971308	0.110266
C	-1.099547	1.998731	0.140101
C	-1.587453	3.417462	0.072592
C	-0.319077	4.234834	-0.312745
C	0.869465	3.370997	0.199350
F	1.147673	3.740053	1.488941
F	1.998145	3.589057	-0.530056
F	-0.243565	4.314506	-1.666119
F	-0.324602	5.478609	0.201209
F	-2.595451	3.609577	-0.824920
F	-2.046832	3.857821	1.283017
C	-1.836394	0.856872	0.260419
C	-1.073098	-0.443366	0.562024
S	-2.301196	-1.797001	0.153417
C	-3.652793	-0.635229	0.128468
C	-3.245429	0.670009	0.181746
H	-3.925605	1.508267	0.095509
H	3.154133	1.365393	0.049065
C	-0.807285	-0.501430	2.087224
C	-0.051896	-0.538543	-1.820125
H	-0.343017	-1.446637	2.371633
H	-1.754031	-0.401662	2.621674
H	-0.149377	0.316874	2.391851
H	0.898192	-0.482478	-2.354844
H	-0.676692	0.301791	-2.134049
H	-0.553665	-1.467706	-2.092739
C	-7.426192	-0.698581	0.179882
C	-6.117230	-0.253228	0.284426
C	-5.030246	-1.116977	0.027262
C	-5.308794	-2.452705	-0.327486
C	-6.615396	-2.911267	-0.433465
C	-7.660464	-2.026322	-0.179342
H	-6.838182	-3.934093	-0.709285
H	-5.934410	0.771522	0.586682
H	-4.493643	-3.138313	-0.533643
C	4.148336	-1.304040	0.143598
C	5.233433	-0.521864	-0.292578
C	6.516678	-1.048561	-0.212228
C	6.756595	-2.353142	0.289077
C	5.671724	-3.131990	0.714216
C	4.391082	-2.609505	0.637736
H	5.851916	-4.129936	1.098543
H	5.065614	0.465759	-0.706562
S	8.045034	-0.326281	-0.678382
H	3.555028	-3.209696	0.981890
N	8.081667	-2.752160	0.305794
N	-9.044864	-2.504045	-0.285801
C	8.861073	-1.827704	-0.156012
C	10.346907	-1.954736	-0.267452
H	10.674704	-1.862729	-1.308300
H	10.855568	-1.175751	0.310005
H	10.644262	-2.932718	0.113848
O	-9.946313	-1.697652	-0.054473
O	-9.220770	-3.681450	-0.600497
H	-8.266017	-0.045160	0.378770
